REMARK  Name = 
REMARK  15 active torsions:
REMARK  status: ('A' for Active; 'I' for Inactive)
REMARK    1  A    between atoms: C_1  and  C_2
REMARK    2  A    between atoms: C_2  and  C_3
REMARK    3  A    between atoms: C_2  and  O_4
REMARK    4  A    between atoms: C_2  and  N_13
REMARK    5  A    between atoms: O_4  and  N_5
REMARK    6  A    between atoms: N_5  and  C_6
REMARK    7  A    between atoms: C_6  and  N_7
REMARK    8  A    between atoms: N_7  and  C_8
REMARK    9  A    between atoms: C_8  and  C_9
REMARK   10  A    between atoms: C_8  and  C_10
REMARK   11  A    between atoms: C_10  and  C_11
REMARK   12  A    between atoms: N_13  and  C_14
REMARK   13  A    between atoms: C_14  and  C_15
REMARK   14  A    between atoms: C_15  and  C_16
REMARK   15  A    between atoms: C_15  and  C_17
REMARK                            x       y       z     vdW  Elec       q    Type
REMARK                         _______ _______ _______ _____ _____    ______ ____
ROOT
ATOM      1  C   UNL     1       1.183  -0.353  -0.153  0.00  0.00    +0.000 C 
ATOM      2  C   UNL     1       2.704  -0.105  -0.106  0.00  0.00    +0.000 C 
ATOM      3  C   UNL     1       3.175   0.521  -1.432  0.00  0.00    +0.000 C 
ENDROOT
BRANCH   2   4
ATOM      4  N   UNL     1       3.320  -1.427   0.115  0.00  0.00    +0.000 NA
ATOM      5  H   UNL     1       3.006  -2.067  -0.617  0.00  0.00    +0.000 HD
BRANCH   4   6
ATOM      6  C   UNL     1       4.783  -1.524   0.219  0.00  0.00    +0.000 C 
BRANCH   6   7
ATOM      7  C   UNL     1       5.413  -0.794   1.416  0.00  0.00    +0.000 C 
ATOM      8  C   UNL     1       4.773  -1.173   2.752  0.00  0.00    +0.000 C 
BRANCH   7   9
ATOM      9  C   UNL     1       6.881  -0.965   1.527  0.00  0.00    +0.000 C 
ATOM     10  C   UNL     1       7.905  -1.255   0.521  0.00  0.00    +0.000 C 
ATOM     11  C   UNL     1       8.734  -0.278   0.981  0.00  0.00    +0.000 C 
ATOM     12  S   UNL     1       8.025  -0.177   2.578  0.00  0.00    +0.000 S 
ATOM     13 CL   UNL     1       7.456   1.706   2.619  0.00  0.00    +0.000 Cl
ENDBRANCH   7   9
ENDBRANCH   6   7
ENDBRANCH   4   6
ENDBRANCH   2   4
BRANCH   2  14
ATOM     14  O   UNL     1       2.986   0.743   1.034  0.00  0.00    +0.000 OA
BRANCH  14  15
ATOM     15  N   UNL     1       2.423   2.091   0.941  0.00  0.00    +0.000 NA
ATOM     16  H   UNL     1       1.442   1.921   1.192  0.00  0.00    +0.000 HD
BRANCH  15  17
ATOM     17  C   UNL     1       3.025   2.811   2.050  0.00  0.00    +0.000 C 
BRANCH  17  18
ATOM     18  N   UNL     1       4.464   2.993   1.827  0.00  0.00    +0.000 N 
ATOM     19  H   UNL     1       4.850   2.050   1.791  0.00  0.00    +0.000 HD
ATOM     20  H   UNL     1       4.914   3.431   2.648  0.00  0.00    +0.000 HD
BRANCH  18  21
ATOM     21  C   UNL     1       4.860   3.750   0.574  0.00  0.00    +0.000 C 
ATOM     22  C   UNL     1       4.383   5.186   0.706  0.00  0.00    +0.000 C 
BRANCH  21  23
ATOM     23  C   UNL     1       6.378   3.807   0.359  0.00  0.00    +0.000 C 
ATOM     24  C   UNL     1       6.960   3.049  -0.816  0.00  0.00    +0.000 C 
ATOM     25  O   UNL     1       7.092   4.406   1.158  0.00  0.00    +0.000 OA
ENDBRANCH  21  23
ENDBRANCH  18  21
ENDBRANCH  17  18
ENDBRANCH  15  17
ENDBRANCH  14  15
ENDBRANCH   2  14
TORSDOF 10
