REMARK  Name = 
REMARK  2 active torsions:
REMARK  status: ('A' for Active; 'I' for Inactive)
REMARK    1  A    between atoms: N_1  and  C_2
REMARK    2  A    between atoms: C_6  and  C_7
REMARK                            x       y       z     vdW  Elec       q    Type
REMARK                         _______ _______ _______ _____ _____    ______ ____
ROOT
ATOM      1  C   UNL     1       2.444   0.077   0.054  0.00  0.00    +0.000 C 
ATOM      2  N   UNL     1       2.659   1.268  -0.660  0.00  0.00    +0.000 N 
ATOM      3  C   UNL     1       3.668   1.402  -1.562  0.00  0.00    +0.000 C 
ATOM      4  O   UNL     1       4.063   2.531  -1.840  0.00  0.00    +0.000 OA
ATOM      5  C   UNL     1       4.168   0.157  -2.226  0.00  0.00    +0.000 C 
ATOM      6  C   UNL     1       5.688   0.129  -2.232  0.00  0.00    +0.000 C 
ATOM      7  C   UNL     1       3.632  -1.091  -1.604  0.00  0.00    +0.000 C 
ATOM      8  N   UNL     1       2.826  -1.133  -0.602  0.00  0.00    +0.000 NA
ATOM      9  H   UNL     1       2.519   2.155  -0.186  0.00  0.00    +0.000 HD
ENDROOT
BRANCH   1  10
ATOM     10  N   UNL     1       1.017   0.018   0.202  0.00  0.00    +0.000 N 
ATOM     11  H   UNL     1       0.627   0.842   0.658  0.00  0.00    +0.000 HD
ATOM     12  H   UNL     1       0.773  -0.835   0.711  0.00  0.00    +0.000 HD
ATOM     13  H   UNL     1       0.634  -0.064  -0.741  0.00  0.00    +0.000 HD
ENDBRANCH   1  10
TORSDOF 1
