MODEL 1
REMARK VINA RESULT:      -7.4      0.000      0.000
REMARK  Name = 
REMARK                            x       y       z     vdW  Elec       q    Type
REMARK                         _______ _______ _______ _____ _____    ______ ____
ROOT
ATOM      1  C   LIG    1       -2.295   4.481 -39.019  0.00  0.00    +0.028 C 
ATOM      2  C   LIG    1       -1.551   5.100 -40.233  0.00  0.00    +0.069 C 
ATOM      3  C   LIG    1       -0.183   5.568 -39.720  0.00  0.00    +0.042 C 
ATOM      4  C   LIG    1       -0.531   5.940 -38.314  0.00  0.00    -0.038 A 
ATOM      5  C   LIG    1        0.216   6.721 -37.449  0.00  0.00    +0.004 A 
ATOM      6  C   LIG    1       -0.261   6.912 -36.153  0.00  0.00    +0.000 A 
ATOM      7  C   LIG    1       -1.460   6.318 -35.738  0.00  0.00    +0.000 A 
ATOM      8  C   LIG    1       -2.204   5.520 -36.612  0.00  0.00    +0.010 A 
ATOM      9  C   LIG    1       -1.729   5.335 -37.905  0.00  0.00    +0.007 A 
ENDROOT
BRANCH   1  10
ATOM     10  N   LIG    1       -3.780   4.687 -39.182  0.00  0.00    +0.239 N 
ATOM     11  H   LIG    1       -4.108   4.007 -39.883  0.00  0.00    +0.203 HD
ATOM     12  H   LIG    1       -4.253   4.417 -38.310  0.00  0.00    +0.203 HD
BRANCH  10  13
ATOM     13  C   LIG    1       -4.256   6.034 -39.605  0.00  0.00    +0.167 C 
BRANCH  13  14
ATOM     14  C   LIG    1       -4.650   6.873 -38.424  0.00  0.00    -0.002 A 
ATOM     15  C   LIG    1       -5.656   6.437 -37.548  0.00  0.00    +0.028 A 
ATOM     16  C   LIG    1       -6.017   7.216 -36.447  0.00  0.00    +0.041 A 
ATOM     17 CL   LIG    1       -7.240   6.655 -35.377  0.00  0.00    -0.084 Cl
ATOM     18  C   LIG    1       -5.391   8.436 -36.210  0.00  0.00    +0.020 A 
ATOM     19  C   LIG    1       -4.400   8.885 -37.082  0.00  0.00    +0.002 A 
ATOM     20  C   LIG    1       -4.031   8.111 -38.185  0.00  0.00    +0.009 A 
ENDBRANCH  13  14
ENDBRANCH  10  13
ENDBRANCH   1  10
BRANCH   1  22
ATOM     21 CL   LIG    1       -2.874   1.924 -39.904  0.00  0.00    -0.119 Cl
ATOM     22  C   LIG    1       -1.936   2.988 -38.811  0.00  0.00    +0.171 C 
ENDBRANCH   1  22
TORSDOF 4
ENDMDL

MODEL 1
REMARK VINA RESULT:      -5.8      0.000      0.000
REMARK  Name = 
REMARK  6 active torsions:
REMARK  status: ('A' for Active; 'I' for Inactive)
REMARK    1  A    between atoms: O_1  and  C_2
REMARK    2  A    between atoms: C_2  and  C_3
REMARK    3  A    between atoms: C_3  and  C_4
REMARK    4  A    between atoms: N_6  and  S_7
REMARK    5  A    between atoms: S_7  and  C_8
REMARK    6  A    between atoms: N_11  and  C_12
REMARK                            x       y       z     vdW  Elec       q    Type
REMARK                         _______ _______ _______ _____ _____    ______ ____
ROOT
ATOM      1  C   UNL     1     -14.724  10.256 -35.147  0.00  0.00    +0.000 C 
ATOM      2  O   UNL     1     -15.521   9.495 -34.596  0.00  0.00    +0.000 OA
ATOM      3  N   UNL     1     -13.421  10.465 -34.715  0.00  0.00    +0.000 N 
ATOM      4  H   UNL     1     -12.959  11.292 -35.108  0.00  0.00    +0.000 HD
ENDROOT
BRANCH   1   5
ATOM      5  C   UNL     1     -15.044  10.946 -36.456  0.00  0.00    +0.000 C 
BRANCH   5   6
ATOM      6  C   UNL     1     -15.063   9.980 -37.627  0.00  0.00    +0.000 C 
BRANCH   6   7
ATOM      7  O   UNL     1     -16.252   9.188 -37.574  0.00  0.00    +0.000 OA
ATOM      8  H   UNL     1     -15.957   8.262 -37.475  0.00  0.00    +0.000 HD
ENDBRANCH   6   7
ENDBRANCH   5   6
ENDBRANCH   1   5
BRANCH   3   9
ATOM      9  S   UNL     1     -12.887   9.871 -33.210  0.00  0.00    +0.000 S 
BRANCH   9  10
ATOM     10  C   UNL     1     -11.237  10.642 -33.090  0.00  0.00    +0.000 C 
ATOM     11  C   UNL     1     -10.306  10.393 -34.271  0.00  0.00    +0.000 C 
ATOM     12  C   UNL     1      -9.693   9.027 -34.014  0.00  0.00    +0.000 C 
ATOM     13  N   UNL     1      -9.482   8.994 -32.504  0.00  0.00    +0.000 N 
ATOM     14  C   UNL     1      -8.104   9.390 -32.067  0.00  0.00    +0.000 C 
ATOM     15  C   UNL     1     -10.467   9.927 -32.010  0.00  0.00    +0.000 C 
ATOM     16  H   UNL     1      -9.675   8.036 -32.175  0.00  0.00    +0.000 HD
ENDBRANCH   9  10
ENDBRANCH   3   9
TORSDOF 5
ENDMDL
