MODEL 1
REMARK VINA RESULT:      -5.2      0.000      0.000
REMARK  Name = 
REMARK  2 active torsions:
REMARK  status: ('A' for Active; 'I' for Inactive)
REMARK    1  A    between atoms: N_1  and  C_2
REMARK    2  A    between atoms: C_4  and  C_5
REMARK                            x       y       z     vdW  Elec       q    Type
REMARK                         _______ _______ _______ _____ _____    ______ ____
ROOT
ATOM      1  C   UNL     1     -14.885  10.016 -37.437  0.00  0.00    +0.000 C 
ATOM      2  C   UNL     1     -13.793   9.314 -36.618  0.00  0.00    +0.000 C 
ATOM      3  C   UNL     1     -13.914   9.872 -35.193  0.00  0.00    +0.000 C 
ATOM      4  C   UNL     1     -12.565   9.999 -34.503  0.00  0.00    +0.000 C 
ATOM      5  C   UNL     1     -14.567  11.201 -35.431  0.00  0.00    +0.000 C 
ATOM      6  C   UNL     1     -15.101  11.269 -36.655  0.00  0.00    +0.000 C 
ENDROOT
BRANCH   1   7
ATOM      7  N   UNL     1     -16.117   9.244 -37.485  0.00  0.00    +0.000 NA
ATOM      8  H   UNL     1     -16.690   9.475 -36.676  0.00  0.00    +0.000 HD
ATOM      9  H   UNL     1     -15.896   8.253 -37.409  0.00  0.00    +0.000 HD
ENDBRANCH   1   7
TORSDOF 1
ENDMDL
