REMARK  Name = 
REMARK                            x       y       z     vdW  Elec       q    Type
REMARK                         _______ _______ _______ _____ _____    ______ ____
ROOT
ATOM      1  C   LIG    1        4.931   2.966  -2.331  0.00  0.00    +0.067 C 
ATOM      2  C   LIG    1        5.102   2.294  -3.695  0.00  0.00    +0.070 C 
ATOM      3  C   LIG    1        4.916   3.294  -4.830  0.00  0.00    +0.090 C 
ATOM      4  N   LIG    1        5.701   4.515  -4.677  0.00  0.00    -0.298 NA
ATOM      5  C   LIG    1        5.909   5.064  -3.339  0.00  0.00    +0.090 C 
ATOM      6  C   LIG    1        6.042   4.017  -2.240  0.00  0.00    +0.070 C 
ENDROOT
BRANCH   1   9
ATOM      7  C   LIG    1        2.131   2.123  -0.966  0.00  0.00    +0.108 C 
ATOM      8  C   LIG    1        2.347   2.681  -2.352  0.00  0.00    +0.141 C 
ATOM      9  N   LIG    1        3.535   3.610  -2.177  0.00  0.00    +0.238 N 
ATOM     10  H   LIG    1        3.454   4.347  -2.898  0.00  0.00    +0.204 HD
ATOM     11  C   LIG    1        3.283   4.266  -0.824  0.00  0.00    +0.132 C 
ATOM     12  C   LIG    1        2.293   3.366  -0.093  0.00  0.00    +0.065 C 
BRANCH   7  14
ATOM     13  F   LIG    1       -0.176   2.392  -1.050  0.00  0.00    -0.205 F 
ATOM     14  C   LIG    1        0.779   1.449  -0.804  0.00  0.00    +0.258 C 
ATOM     15  F   LIG    1        0.633   1.094   0.498  0.00  0.00    -0.205 F 
BRANCH  14  16
ATOM     16  C   LIG    1        0.457   0.244  -1.680  0.00  0.00    +0.091 C 
BRANCH  16  17
ATOM     17  C   LIG    1        1.302  -0.994  -1.420  0.00  0.00    +0.114 C 
ATOM     18 CL   LIG    1        2.911  -0.865  -2.171  0.00  0.00    -0.125 Cl
ENDBRANCH  16  17
ENDBRANCH  14  16
ENDBRANCH   7  14
ENDBRANCH   1   9
BRANCH   4  19
ATOM     19  C   LIG    1        5.351   5.550  -5.678  0.00  0.00    +0.119 C 
BRANCH  19  20
ATOM     20  C   LIG    1        4.039   6.269  -5.401  0.00  0.00    -0.033 A 
ATOM     21  C   LIG    1        4.025   7.448  -4.639  0.00  0.00    +0.005 A 
ATOM     22  C   LIG    1        2.821   8.054  -4.281  0.00  0.00    +0.000 A 
ATOM     23  C   LIG    1        1.612   7.501  -4.700  0.00  0.00    +0.000 A 
ATOM     24  C   LIG    1        1.610   6.360  -5.496  0.00  0.00    +0.000 A 
ATOM     25  C   LIG    1        2.816   5.751  -5.853  0.00  0.00    +0.005 A 
ENDBRANCH  19  20
ENDBRANCH   4  19
TORSDOF 6
