MODEL 1
REMARK VINA RESULT:      -5.8      0.000      0.000
REMARK  Name = 
REMARK  6 active torsions:
REMARK  status: ('A' for Active; 'I' for Inactive)
REMARK    1  A    between atoms: O_1  and  C_2
REMARK    2  A    between atoms: C_2  and  C_3
REMARK    3  A    between atoms: C_3  and  C_4
REMARK    4  A    between atoms: N_6  and  S_7
REMARK    5  A    between atoms: S_7  and  C_8
REMARK    6  A    between atoms: N_11  and  C_12
REMARK                            x       y       z     vdW  Elec       q    Type
REMARK                         _______ _______ _______ _____ _____    ______ ____
ROOT
ATOM      1  C   UNL     1     -14.723  10.263 -35.149  0.00  0.00    +0.000 C 
ATOM      2  O   UNL     1     -15.527   9.512 -34.596  0.00  0.00    +0.000 OA
ATOM      3  N   UNL     1     -13.422  10.470 -34.713  0.00  0.00    +0.000 N 
ATOM      4  H   UNL     1     -12.954  11.291 -35.111  0.00  0.00    +0.000 HD
ENDROOT
BRANCH   1   5
ATOM      5  C   UNL     1     -15.033  10.943 -36.467  0.00  0.00    +0.000 C 
BRANCH   5   6
ATOM      6  C   UNL     1     -15.064   9.963 -37.627  0.00  0.00    +0.000 C 
BRANCH   6   7
ATOM      7  O   UNL     1     -16.259   9.183 -37.563  0.00  0.00    +0.000 OA
ATOM      8  H   UNL     1     -16.862   9.556 -38.236  0.00  0.00    +0.000 HD
ENDBRANCH   6   7
ENDBRANCH   5   6
ENDBRANCH   1   5
BRANCH   3   9
ATOM      9  S   UNL     1     -12.898   9.888 -33.199  0.00  0.00    +0.000 S 
BRANCH   9  10
ATOM     10  C   UNL     1     -11.245  10.653 -33.077  0.00  0.00    +0.000 C 
ATOM     11  C   UNL     1     -10.306  10.382 -34.247  0.00  0.00    +0.000 C 
ATOM     12  C   UNL     1      -9.702   9.017 -33.964  0.00  0.00    +0.000 C 
ATOM     13  N   UNL     1      -9.503   9.007 -32.453  0.00  0.00    +0.000 N 
ATOM     14  C   UNL     1      -8.127   9.402 -32.010  0.00  0.00    +0.000 C 
ATOM     15  C   UNL     1     -10.487   9.951 -31.981  0.00  0.00    +0.000 C 
ATOM     16  H   UNL     1      -9.703   8.054 -32.111  0.00  0.00    +0.000 HD
ENDBRANCH   9  10
ENDBRANCH   3   9
TORSDOF 5
ENDMDL
