REMARK  Name = 
REMARK  6 active torsions:
REMARK  status: ('A' for Active; 'I' for Inactive)
REMARK    1  A    between atoms: O_1  and  C_2
REMARK    2  A    between atoms: C_2  and  C_3
REMARK    3  A    between atoms: C_3  and  C_4
REMARK    4  A    between atoms: N_6  and  S_7
REMARK    5  A    between atoms: S_7  and  C_8
REMARK    6  A    between atoms: N_11  and  C_12
REMARK                            x       y       z     vdW  Elec       q    Type
REMARK                         _______ _______ _______ _____ _____    ______ ____
ROOT
ATOM      1  C   UNL     1       6.957  -1.899  -1.912  0.00  0.00    +0.000 C 
ATOM      2  O   UNL     1       8.186  -1.880  -1.825  0.00  0.00    +0.000 OA
ATOM      3  N   UNL     1       6.193  -0.841  -2.384  0.00  0.00    +0.000 N 
ATOM      4  H   UNL     1       5.191  -0.899  -2.173  0.00  0.00    +0.000 HD
ENDROOT
BRANCH   1   5
ATOM      5  C   UNL     1       6.151  -3.152  -1.641  0.00  0.00    +0.000 C 
BRANCH   5   6
ATOM      6  C   UNL     1       5.101  -2.940  -0.565  0.00  0.00    +0.000 C 
BRANCH   6   7
ATOM      7  O   UNL     1       4.145  -1.977  -1.012  0.00  0.00    +0.000 OA
ATOM      8  H   UNL     1       3.474  -1.912  -0.304  0.00  0.00    +0.000 HD
ENDBRANCH   6   7
ENDBRANCH   5   6
ENDBRANCH   1   5
BRANCH   3   9
ATOM      9  S   UNL     1       6.883   0.695  -2.646  0.00  0.00    +0.000 S 
BRANCH   9  10
ATOM     10  C   UNL     1       7.349   0.579  -4.407  0.00  0.00    +0.000 C 
ATOM     11  C   UNL     1       8.316  -0.545  -4.760  0.00  0.00    +0.000 C 
ATOM     12  C   UNL     1       9.695  -0.003  -4.425  0.00  0.00    +0.000 C 
ATOM     13  N   UNL     1       9.623   1.466  -4.827  0.00  0.00    +0.000 N 
ATOM     14  C   UNL     1      10.146   1.754  -6.202  0.00  0.00    +0.000 C 
ATOM     15  C   UNL     1       8.214   1.767  -4.739  0.00  0.00    +0.000 C 
ATOM     16  H   UNL     1      10.167   2.012  -4.141  0.00  0.00    +0.000 HD
ENDBRANCH   9  10
ENDBRANCH   3   9
TORSDOF 5
