MODEL 1
REMARK VINA RESULT:      -5.8      0.000      0.000
REMARK  Name = 
REMARK  6 active torsions:
REMARK  status: ('A' for Active; 'I' for Inactive)
REMARK    1  A    between atoms: O_1  and  C_2
REMARK    2  A    between atoms: C_2  and  C_3
REMARK    3  A    between atoms: C_3  and  C_4
REMARK    4  A    between atoms: N_6  and  S_7
REMARK    5  A    between atoms: S_7  and  C_8
REMARK    6  A    between atoms: N_11  and  C_12
REMARK                            x       y       z     vdW  Elec       q    Type
REMARK                         _______ _______ _______ _____ _____    ______ ____
ROOT
ATOM      1  C   UNL     1     -14.724  10.256 -35.147  0.00  0.00    +0.000 C 
ATOM      2  O   UNL     1     -15.521   9.495 -34.596  0.00  0.00    +0.000 OA
ATOM      3  N   UNL     1     -13.421  10.465 -34.715  0.00  0.00    +0.000 N 
ATOM      4  H   UNL     1     -12.959  11.292 -35.108  0.00  0.00    +0.000 HD
ENDROOT
BRANCH   1   5
ATOM      5  C   UNL     1     -15.044  10.946 -36.456  0.00  0.00    +0.000 C 
BRANCH   5   6
ATOM      6  C   UNL     1     -15.063   9.980 -37.627  0.00  0.00    +0.000 C 
BRANCH   6   7
ATOM      7  O   UNL     1     -16.252   9.188 -37.574  0.00  0.00    +0.000 OA
ATOM      8  H   UNL     1     -15.957   8.262 -37.475  0.00  0.00    +0.000 HD
ENDBRANCH   6   7
ENDBRANCH   5   6
ENDBRANCH   1   5
BRANCH   3   9
ATOM      9  S   UNL     1     -12.887   9.871 -33.210  0.00  0.00    +0.000 S 
BRANCH   9  10
ATOM     10  C   UNL     1     -11.237  10.642 -33.090  0.00  0.00    +0.000 C 
ATOM     11  C   UNL     1     -10.306  10.393 -34.271  0.00  0.00    +0.000 C 
ATOM     12  C   UNL     1      -9.693   9.027 -34.014  0.00  0.00    +0.000 C 
ATOM     13  N   UNL     1      -9.482   8.994 -32.504  0.00  0.00    +0.000 N 
ATOM     14  C   UNL     1      -8.104   9.390 -32.067  0.00  0.00    +0.000 C 
ATOM     15  C   UNL     1     -10.467   9.927 -32.010  0.00  0.00    +0.000 C 
ATOM     16  H   UNL     1      -9.675   8.036 -32.175  0.00  0.00    +0.000 HD
ENDBRANCH   9  10
ENDBRANCH   3   9
TORSDOF 5
ENDMDL
