
     RDKit          3D

 35 37  0  0  0  0  0  0  0  0999 V2000
   -0.6728   -0.6613    3.6647 O   0  0  0  0  0  0  0  0  0  0  0  0
    0.3416   -0.6274    2.7350 N   0  0  0  0  0  0  0  0  0  0  0  0
    1.6284   -0.7218    3.0330 N   0  0  0  0  0  0  0  0  0  0  0  0
    2.3675   -0.5276    1.9463 N   0  0  0  0  0  0  0  0  0  0  0  0
    1.5089   -0.2796    0.9333 C   0  0  0  0  0  0  0  0  0  0  0  0
    1.8842   -0.0536   -0.4328 N   0  0  0  0  0  0  0  0  0  0  0  0
    3.2325    0.1998   -0.8612 C   0  0  0  0  0  0  0  0  0  0  0  0
    3.6451   -0.2370   -2.1302 C   0  0  0  0  0  0  0  0  0  0  0  0
    4.9455    0.0156   -2.5779 C   0  0  0  0  0  0  0  0  0  0  0  0
    5.8402    0.7197   -1.7682 C   0  0  0  0  0  0  0  0  0  0  0  0
    5.4330    1.1791   -0.5132 C   0  0  0  0  0  0  0  0  0  0  0  0
    4.1335    0.9277   -0.0614 C   0  0  0  0  0  0  0  0  0  0  0  0
    0.2271   -0.3695    1.4226 C   0  0  0  0  0  0  0  0  0  0  0  0
   -0.9872   -0.0837    0.7152 N   0  0  0  0  0  0  0  0  0  0  0  0
   -2.2209   -0.7826    0.9566 C   0  0  0  0  0  0  0  0  0  0  0  0
   -2.2384   -1.7692    1.7422 O   0  0  0  0  0  0  0  0  0  0  0  0
   -3.4812   -0.3746    0.2896 C   0  0  0  0  0  0  0  0  0  0  0  0
   -3.4782    0.2337   -0.9808 C   0  0  0  0  0  0  0  0  0  0  0  0
   -4.6811    0.6045   -1.5906 C   0  0  0  0  0  0  0  0  0  0  0  0
   -5.8971    0.3681   -0.9461 C   0  0  0  0  0  0  0  0  0  0  0  0
   -5.9140   -0.2462    0.3075 C   0  0  0  0  0  0  0  0  0  0  0  0
   -4.7148   -0.6202    0.9215 C   0  0  0  0  0  0  0  0  0  0  0  0
   -0.4680   -0.8189    4.6440 H   0  0  0  0  0  0  0  0  0  0  0  0
    1.1484   -0.1745   -1.1651 H   0  0  0  0  0  0  0  0  0  0  0  0
    2.9604   -0.7822   -2.7678 H   0  0  0  0  0  0  0  0  0  0  0  0
    5.2587   -0.3328   -3.5536 H   0  0  0  0  0  0  0  0  0  0  0  0
    6.8458    0.9166   -2.1167 H   0  0  0  0  0  0  0  0  0  0  0  0
    6.1219    1.7386    0.1064 H   0  0  0  0  0  0  0  0  0  0  0  0
    3.8290    1.3249    0.8973 H   0  0  0  0  0  0  0  0  0  0  0  0
   -0.9360    0.6344   -0.0392 H   0  0  0  0  0  0  0  0  0  0  0  0
   -2.5574    0.3989   -1.5225 H   0  0  0  0  0  0  0  0  0  0  0  0
   -4.6704    1.0689   -2.5683 H   0  0  0  0  0  0  0  0  0  0  0  0
   -6.8263    0.6555   -1.4209 H   0  0  0  0  0  0  0  0  0  0  0  0
   -6.8571   -0.4329    0.8047 H   0  0  0  0  0  0  0  0  0  0  0  0
   -4.7508   -1.0906    1.8965 H   0  0  0  0  0  0  0  0  0  0  0  0
  1  2  1  0
  2  3  1  0
  3  4  2  0
  4  5  1  0
  5  6  1  0
  6  7  1  0
  7  8  2  0
  8  9  1  0
  9 10  2  0
 10 11  1  0
 11 12  2  0
  5 13  2  0
 13 14  1  0
 14 15  1  0
 15 16  2  0
 15 17  1  0
 17 18  2  0
 18 19  1  0
 19 20  2  0
 20 21  1  0
 21 22  2  0
 13  2  1  0
 22 17  1  0
 12  7  1  0
  1 23  1  0
  6 24  1  0
  8 25  1  0
  9 26  1  0
 10 27  1  0
 11 28  1  0
 12 29  1  0
 14 30  1  0
 18 31  1  0
 19 32  1  0
 20 33  1  0
 21 34  1  0
 22 35  1  0
M  END
$$$$
