REMARK  Name = 
REMARK  1 active torsions:
REMARK  status: ('A' for Active; 'I' for Inactive)
REMARK    1  A    between atoms: C_1  and  N_2
REMARK                            x       y       z     vdW  Elec       q    Type
REMARK                         _______ _______ _______ _____ _____    ______ ____
ROOT
ATOM      1  C   UNL     1       1.110  -0.388   0.153  0.00  0.00    +0.000 C 
ATOM      2  N   UNL     1       2.488   0.072   0.049  0.00  0.00    +0.000 NA
ATOM      3  H   UNL     1       2.529   1.049  -0.240  0.00  0.00    +0.000 HD
ATOM      4  H   UNL     1       2.997  -0.452  -0.663  0.00  0.00    +0.000 HD
ENDROOT
TORSDOF 0
